


 15 16  0  0000  0  0  0  0  0999 V2000
    4.0284   -8.9720    0.0000 O   0  0  0  0  0  0  0  0  0  0  0
    4.3065   -7.6710    0.0000 C   0  0  0  0  0  0  0  0  0  0  0
    5.5716   -7.2583    0.0000 O   0  0  0  0  0  0  0  0  0  0  0
    3.3196   -6.7828    0.0000 C   0  0  0  0  0  0  0  0  0  0  0
    3.5978   -5.4819    0.0000 C   0  0  0  0  0  0  0  0  0  0  0
    2.6108   -4.5936    0.0000 C   0  0  0  0  0  0  0  0  0  0  0
    2.8800   -3.2927    0.0000 C   0  0  0  0  0  0  0  0  0  0  0
    4.1002   -2.7544    0.0000 C   0  0  0  0  0  0  0  0  0  0  0
    3.9566   -1.4265    0.0000 N   0  0  0  0  0  0  0  0  0  0  0
    2.6557   -1.1484    0.0000 C   0  0  0  0  0  0  0  0  0  0  0
    1.9918    0.0000    0.0000 C   0  0  0  0  0  0  0  0  0  0  0
    0.6639    0.0000    0.0000 C   0  0  0  0  0  0  0  0  0  0  0
    0.0000   -1.1484    0.0000 C   0  0  0  0  0  0  0  0  0  0  0
    0.6639   -2.3058    0.0000 C   0  0  0  0  0  0  0  0  0  0  0
    1.9918   -2.3058    0.0000 C   0  0  0  0  0  0  0  0  0  0  0
  1  2  1  0
  2  3  2  0
  2  4  1  0
  4  5  1  0
  5  6  1  0
  6  7  1  0
  7  8  2  0
  7 15  1  0
  8  9  1  0
  9 10  1  0
 10 11  1  0
 10 15  2  0
 11 12  2  0
 12 13  1  0
 13 14  2  0
 14 15  1  0
M  END

> <StdInChI>
InChI=1S/C12H13NO2/c14-12(15)7-3-4-9-8-13-11-6-2-1-5-10(9)11/h1-2,5-6,8,13H,3-4,7H2,(H,14,15)

> <StdInChIKey>
JTEDVYBZBROSJT-UHFFFAOYSA-N

> <AuxInfo>
1/1/N:13,12,5,6,14,11,4,8,7,15,10,2,9,1,3/E:(14,15)/rA:15nOCOCCCCCNCCCCCC/rB:s1;d2;s2;s4;s5;s6;d7;s8;s9;s10;d11;s12;d13;s7d10s14;/rC:4.0284,-8.972,0;4.3065,-7.671,0;5.5716,-7.2583,0;3.3196,-6.7828,0;3.5978,-5.4819,0;2.6108,-4.5936,0;2.88,-3.2927,0;4.1002,-2.7544,0;3.9566,-1.4265,0;2.6557,-1.1484,0;1.9918,0,0;.6639,0,0;0,-1.1484,0;.6639,-2.3058,0;1.9918,-2.3058,0;

> <Formula>
C12 H13 N O2

> <Mw>
203.2371

> <SMILES>
OC(CCCC1C2C=CC=CC=2NC=1)=O

> <CSID>
8298

$$$$
