
  Mrv1816 07151817352D          

 37 41  0  0  1  0            999 V2000
    4.3811   -4.2835    0.0000 C   0  0  1  0  0  0  0  0  0  0  0  0
    5.0889   -3.8808    0.0000 C   0  0  1  0  0  0  0  0  0  0  0  0
    5.0889   -3.0387    0.0000 C   0  0  1  0  0  0  0  0  0  0  0  0
    5.8456   -2.7947    0.0000 C   0  0  1  0  0  0  0  0  0  0  0  0
    5.8456   -1.8550    0.0000 N   0  0  0  0  0  0  0  0  0  0  0  0
    6.5778   -1.4522    0.0000 C   0  0  0  0  0  0  0  0  0  0  0  0
    7.2978   -1.8550    0.0000 C   0  0  0  0  0  0  0  0  0  0  0  0
    8.0056   -1.4522    0.0000 C   0  0  0  0  0  0  0  0  0  0  0  0
    8.7500   -1.8550    0.0000 C   0  0  0  0  0  0  0  0  0  0  0  0
    9.4334   -1.4522    0.0000 C   0  0  0  0  0  0  0  0  0  0  0  0
   10.1656   -1.8550    0.0000 C   0  0  0  0  0  0  0  0  0  0  0  0
   10.9101   -1.4522    0.0000 N   0  0  0  0  0  0  0  0  0  0  0  0
   11.1419   -0.6712    0.0000 C   0  0  0  0  0  0  0  0  0  0  0  0
   11.9474   -0.6712    0.0000 C   0  0  0  0  0  0  0  0  0  0  0  0
   12.2036   -1.4522    0.0000 C   0  0  0  0  0  0  0  0  0  0  0  0
   11.5202   -1.9404    0.0000 C   0  0  0  0  0  0  0  0  0  0  0  0
   11.5202   -2.7580    0.0000 O   0  0  0  0  0  0  0  0  0  0  0  0
   10.6782    0.0000    0.0000 O   0  0  0  0  0  0  0  0  0  0  0  0
    6.3215   -3.4658    0.0000 C   0  0  0  0  0  0  0  0  0  0  0  0
    5.8700   -4.1126    0.0000 C   0  0  0  0  0  0  0  0  0  0  0  0
    4.3811   -2.6238    0.0000 C   0  0  0  0  0  0  0  0  0  0  0  0
    3.6611   -3.0265    0.0000 C   0  0  0  0  0  0  0  0  0  0  0  0
    3.6611   -3.8930    0.0000 C   0  0  2  0  0  0  0  0  0  0  0  0
    2.9167   -4.2591    0.0000 C   0  0  0  0  0  0  0  0  0  0  0  0
    2.9167   -5.1133    0.0000 C   0  0  0  0  0  0  0  0  0  0  0  0
    2.1601   -5.5161    0.0000 C   0  0  0  0  0  0  0  0  0  0  0  0
    1.4279   -5.0767    0.0000 C   0  0  0  0  0  0  0  0  0  0  0  0
    0.6956   -5.4550    0.0000 O   0  0  0  0  0  0  0  0  0  0  0  0
    0.0000   -5.0035    0.0000 C   0  0  0  0  0  0  0  0  0  0  0  0
    1.4279   -4.2591    0.0000 C   0  0  0  0  0  0  0  0  0  0  0  0
    2.1845   -3.8442    0.0000 C   0  0  0  0  0  0  0  0  0  0  0  0
    3.6367   -5.5405    0.0000 C   0  0  0  0  0  0  0  0  0  0  0  0
    4.3811   -5.1133    0.0000 C   0  0  0  0  0  0  0  0  0  0  0  0
    3.6611   -4.7106    0.0000 H   0  0  0  0  0  0  0  0  0  0  0  0
    5.0889   -2.2943    0.0000 C   0  0  0  0  0  0  0  0  0  0  0  0
    5.0889   -4.7717    0.0000 H   0  0  0  0  0  0  0  0  0  0  0  0
    4.3811   -3.3682    0.0000 H   0  0  0  0  0  0  0  0  0  0  0  0
  1  2  1  0  0  0  0
  1 23  1  0  0  0  0
  1 33  1  0  0  0  0
  1 37  1  1  0  0  0
  2  3  1  0  0  0  0
  2 20  1  0  0  0  0
  2 36  1  6  0  0  0
  3  4  1  0  0  0  0
  3 21  1  0  0  0  0
  3 35  1  1  0  0  0
  4  5  1  1  0  0  0
  4 19  1  0  0  0  0
  5  6  1  0  0  0  0
  6  7  1  0  0  0  0
  7  8  1  0  0  0  0
  8  9  1  0  0  0  0
  9 10  1  0  0  0  0
 10 11  1  0  0  0  0
 11 12  1  0  0  0  0
 12 13  1  0  0  0  0
 12 16  1  0  0  0  0
 13 14  1  0  0  0  0
 13 18  2  0  0  0  0
 14 15  2  0  0  0  0
 15 16  1  0  0  0  0
 16 17  2  0  0  0  0
 19 20  1  0  0  0  0
 21 22  1  0  0  0  0
 22 23  1  0  0  0  0
 23 24  1  0  0  0  0
 23 34  1  6  0  0  0
 24 25  2  0  0  0  0
 24 31  1  0  0  0  0
 25 26  1  0  0  0  0
 25 32  1  0  0  0  0
 26 27  2  0  0  0  0
 27 28  1  0  0  0  0
 27 30  1  0  0  0  0
 28 29  1  0  0  0  0
 30 31  2  0  0  0  0
 32 33  1  0  0  0  0
M  END
