


 19 21  0  0000  0  0  0  0  0999 V2000
    4.0278   -5.5882    0.0000 O   0  0  0  0  0  0  0  0  0  0  0
    4.7811   -4.5505    0.0000 C   0  0  0  0  0  0  0  0  0  0  0
    6.0648   -4.5505    0.0000 N   0  0  0  0  0  0  0  0  0  0  0
    6.4645   -3.3283    0.0000 C   0  0  0  0  0  0  0  0  0  0  0
    7.6867   -2.9363    0.0000 O   0  0  0  0  0  0  0  0  0  0  0
    5.4268   -2.5750    0.0000 N   0  0  0  0  0  0  0  0  0  0  0
    4.3891   -3.3283    0.0000 C   0  0  0  0  0  0  0  0  0  0  0
    2.3444   -4.2431    0.0000 C   0  0  0  0  0  0  0  0  0  0  0
    2.2138   -5.5191    0.0000 C   0  0  0  0  0  0  0  0  0  0  0
    1.0377   -6.0418    0.0000 C   0  0  0  0  0  0  0  0  0  0  0
    0.0000   -5.2961    0.0000 C   0  0  0  0  0  0  0  0  0  0  0
    0.1307   -4.0125    0.0000 C   0  0  0  0  0  0  0  0  0  0  0
    1.3067   -3.4821    0.0000 C   0  0  0  0  0  0  0  0  0  0  0
    3.7511   -2.2215    0.0000 C   0  0  0  0  0  0  0  0  0  0  0
    2.4597   -2.2215    0.0000 C   0  0  0  0  0  0  0  0  0  0  0
    1.8218   -1.1146    0.0000 C   0  0  0  0  0  0  0  0  0  0  0
    2.4521    0.0000    0.0000 C   0  0  0  0  0  0  0  0  0  0  0
    3.7434    0.0000    0.0000 C   0  0  0  0  0  0  0  0  0  0  0
    4.3968   -1.1069    0.0000 C   0  0  0  0  0  0  0  0  0  0  0
  1  2  2  0
  2  3  1  0
  2  7  1  0
  3  4  1  0
  4  5  2  0
  4  6  1  0
  6  7  1  0
  7  8  1  0
  7 14  1  0
  8  9  1  0
  8 13  2  0
  9 10  2  0
 10 11  1  0
 11 12  2  0
 12 13  1  0
 14 15  1  0
 14 19  2  0
 15 16  2  0
 16 17  1  0
 17 18  2  0
 18 19  1  0
M  END

> <StdInChI>
InChI=1S/C15H12N2O2/c18-13-15(17-14(19)16-13,11-7-3-1-4-8-11)12-9-5-2-6-10-12/h1-10H,(H2,16,17,18,19)

> <StdInChIKey>
CXOFVDLJLONNDW-UHFFFAOYSA-N

> <AuxInfo>
1/1/N:11,17,10,12,16,18,9,13,15,19,8,14,2,4,7,3,6,1,5/E:(1,2)(3,4,5,6)(7,8,9,10)(11,12)/rA:19nOCNCONCCCCCCCCCCCCC/rB:d1;s2;s3;d4;s4;s2s6;s7;s8;d9;s10;d11;d8s12;s7;s14;d15;s16;d17;d14s18;/rC:4.0278,-5.5882,0;4.7811,-4.5505,0;6.0648,-4.5505,0;6.4645,-3.3283,0;7.6867,-2.9363,0;5.4268,-2.575,0;4.3891,-3.3283,0;2.3444,-4.2431,0;2.2138,-5.5191,0;1.0377,-6.0418,0;0,-5.2961,0;.1307,-4.0125,0;1.3067,-3.4821,0;3.7511,-2.2215,0;2.4597,-2.2215,0;1.8218,-1.1146,0;2.4521,0,0;3.7434,0,0;4.3968,-1.1069,0;

> <Formula>
C15 H12 N2 O2

> <Mw>
252.268

> <SMILES>
O=C1C(C2=CC=CC=C2)(C2=CC=CC=C2)NC(=O)N1

> <CSID>
1710

$$$$
