


 33 34  0  0  0  0  0  0  0  0999 V2000
   -4.5759   -0.8267    0.0000 C   0  0  0  0  0  0  0  0  0  0  0  0
   -5.2903   -1.2392    0.0000 C   0  0  0  0  0  0  0  0  0  0  0  0
   -5.2903   -2.0643    0.0000 C   0  0  0  0  0  0  0  0  0  0  0  0
   -4.5759   -2.4768    0.0000 C   0  0  0  0  0  0  0  0  0  0  0  0
   -3.8614   -2.0643    0.0000 C   0  0  0  0  0  0  0  0  0  0  0  0
   -3.8614   -1.2392    0.0000 C   0  0  0  0  0  0  0  0  0  0  0  0
   -6.0048   -2.4768    0.0000 O   0  0  0  0  0  0  0  0  0  0  0  0
   -4.5759   -3.3018    0.0000 O   0  0  0  0  0  0  0  0  0  0  0  0
   -6.0910   -1.6563    0.0000 C   0  0  0  0  0  0  0  0  0  0  0  0
   -5.2904   -3.7143    0.0000 C   0  0  0  0  0  0  0  0  0  0  0  0
   -3.1469   -0.8267    0.0000 C   0  0  0  0  0  0  0  0  0  0  0  0
   -3.1469   -0.0017    0.0000 C   0  0  0  0  0  0  0  0  0  0  0  0
   -3.8614    0.4107    0.0000 C   0  0  0  0  0  0  0  0  0  0  0  0
   -2.4325    0.4107    0.0000 C   0  0  0  0  0  0  0  0  0  0  0  0
   -2.4325   -1.2392    0.0000 C   0  0  0  0  0  0  0  0  0  0  0  0
   -3.1469   -1.6517    0.0000 C   0  0  0  0  0  0  0  0  0  0  0  0
   -2.8114   -2.4054    0.0000 C   0  0  0  0  0  0  0  0  0  0  0  0
   -3.2963   -3.0728    0.0000 C   0  0  0  0  0  0  0  0  0  0  0  0
   -2.5117   -3.3277    0.0000 N   0  0  0  0  0  0  0  0  0  0  0  0
   -2.3401   -4.1347    0.0000 C   0  0  0  0  0  0  0  0  0  0  0  0
   -1.7270   -3.5827    0.0000 C   0  0  0  0  0  0  0  0  0  0  0  0
   -1.8986   -2.7757    0.0000 C   0  0  0  0  0  0  0  0  0  0  0  0
   -0.9020   -3.5827    0.0000 C   0  0  0  0  0  0  0  0  0  0  0  0
   -0.4896   -4.2971    0.0000 C   0  0  0  0  0  0  0  0  0  0  0  0
    0.3354   -4.2971    0.0000 C   0  0  0  0  0  0  0  0  0  0  0  0
    0.7480   -3.5827    0.0000 C   0  0  0  0  0  0  0  0  0  0  0  0
    0.3355   -2.8682    0.0000 C   0  0  0  0  0  0  0  0  0  0  0  0
   -0.4895   -2.8682    0.0000 C   0  0  0  0  0  0  0  0  0  0  0  0
    0.8204   -2.2008    0.0000 O   0  0  0  0  0  0  0  0  0  0  0  0
    1.5684   -3.6690    0.0000 O   0  0  0  0  0  0  0  0  0  0  0  0
    0.4848   -1.4471    0.0000 C   0  0  0  0  0  0  0  0  0  0  0  0
    1.9040   -4.4226    0.0000 C   0  0  0  0  0  0  0  0  0  0  0  0
   -1.6478   -0.9842    0.0000 N   0  0  0  0  0  0  0  0  0  0  0  0
  1  2  2  0  0  0  0
  2  3  1  0  0  0  0
  3  4  2  0  0  0  0
  4  5  1  0  0  0  0
  5  6  2  0  0  0  0
  6  1  1  0  0  0  0
  4  8  1  0  0  0  0
  8 10  1  0  0  0  0
  3  7  1  0  0  0  0
  7  9  1  0  0  0  0
  6 11  1  0  0  0  0
 11 12  1  0  0  0  0
 12 13  1  0  0  0  0
 12 14  1  0  0  0  0
 11 15  1  0  0  0  0
 11 16  1  0  0  0  0
 16 17  1  0  0  0  0
 17 18  1  0  0  0  0
 20 21  1  0  0  0  0
 18 19  1  0  0  0  0
 19 20  1  0  0  0  0
 19 22  1  0  0  0  0
 23 24  2  0  0  0  0
 24 25  1  0  0  0  0
 25 26  2  0  0  0  0
 26 27  1  0  0  0  0
 27 28  2  0  0  0  0
 28 23  1  0  0  0  0
 21 23  1  0  0  0  0
 27 29  1  0  0  0  0
 26 30  1  0  0  0  0
 29 31  1  0  0  0  0
 30 32  1  0  0  0  0
 15 33  3  0  0  0  0
M  END
