
  Mrv1816 07161818102D          

 33 35  0  0  0  0            999 V2000
   -0.9375    0.7241    0.0000 O   0  0  0  0  0  0  0  0  0  0  0  0
   -1.6049    0.2392    0.0000 C   0  0  1  0  0  0  0  0  0  0  0  0
   -1.3500   -0.5454    0.0000 C   0  0  2  0  0  0  0  0  0  0  0  0
   -0.5250   -0.5454    0.0000 C   0  0  2  0  0  0  0  0  0  0  0  0
   -0.2701    0.2392    0.0000 C   0  0  1  0  0  0  0  0  0  0  0  0
   -1.7340    1.0540    0.0000 C   0  0  0  0  0  0  0  0  0  0  0  0
   -2.5590    1.0540    0.0000 O   0  0  0  0  0  0  0  0  0  0  0  0
   -3.3840    1.0540    0.0000 P   0  0  0  0  0  0  0  0  0  0  0  0
   -3.7585    0.3189    0.0000 O   0  0  0  0  0  0  0  0  0  0  0  0
   -3.8876   -0.4959    0.0000 P   0  0  0  0  0  0  0  0  0  0  0  0
   -3.9308   -1.3198    0.0000 O   0  0  0  0  0  0  0  0  0  0  0  0
   -4.0170   -2.1403    0.0000 P   0  0  0  0  0  0  0  0  0  0  0  0
   -4.2305   -2.9372    0.0000 O   0  5  0  0  0  0  0  0  0  0  0  0
   -3.4702    1.8745    0.0000 O   0  0  0  0  0  0  0  0  0  0  0  0
   -3.0883    0.2838    0.0000 O   0  5  0  0  0  0  0  0  0  0  0  0
   -4.7126   -0.4959    0.0000 O   0  0  0  0  0  0  0  0  0  0  0  0
   -3.0907   -0.7094    0.0000 O   0  5  0  0  0  0  0  0  0  0  0  0
   -4.8318   -2.0112    0.0000 O   0  0  0  0  0  0  0  0  0  0  0  0
   -3.2201   -2.3538    0.0000 O   0  5  0  0  0  0  0  0  0  0  0  0
   -1.6856   -1.2991    0.0000 O   0  0  0  0  0  0  0  0  0  0  0  0
   -0.1505   -1.2805    0.0000 O   0  0  0  0  0  0  0  0  0  0  0  0
    0.4836   -0.0964    0.0000 C   0  0  0  0  0  0  0  0  0  0  0  0
    1.2373   -0.4319    0.0000 N   0  0  0  0  0  0  0  0  0  0  0  0
   -0.0565    1.0361    0.0000 C   0  0  0  0  0  0  0  0  0  0  0  0
   -0.1961    2.3636    0.0000 C   0  0  0  0  0  0  0  0  0  0  0  0
   -0.6085    1.6491    0.0000 C   0  0  0  0  0  0  0  0  0  0  0  0
    0.6971    1.3716    0.0000 N   0  0  0  0  0  0  0  0  0  0  0  0
    0.6109    2.1921    0.0000 C   0  0  0  0  0  0  0  0  0  0  0  0
    1.3459    2.6448    0.0000 C   0  0  0  0  0  0  0  0  0  0  0  0
    1.4322    0.9971    0.0000 N   0  0  0  0  0  0  0  0  0  0  0  0
    2.1241    1.4464    0.0000 C   0  0  0  0  0  0  0  0  0  0  0  0
    2.0809    2.2703    0.0000 N   0  0  0  0  0  0  0  0  0  0  0  0
    1.3890    3.4687    0.0000 N   0  0  0  0  0  0  0  0  0  0  0  0
  1  2  1  0  0  0  0
  2  3  1  0  0  0  0
  3  4  1  0  0  0  0
  4  5  1  0  0  0  0
  1  5  1  0  0  0  0
  2  6  1  1  0  0  0
  6  7  1  0  0  0  0
  7  8  1  0  0  0  0
  8  9  1  0  0  0  0
  9 10  1  0  0  0  0
 10 11  1  0  0  0  0
 11 12  1  0  0  0  0
 12 13  1  0  0  0  0
  8 14  2  0  0  0  0
  8 15  1  0  0  0  0
 10 16  2  0  0  0  0
 10 17  1  0  0  0  0
 12 18  2  0  0  0  0
 12 19  1  0  0  0  0
  3 20  1  6  0  0  0
  4 21  1  6  0  0  0
  5 22  1  6  0  0  0
 22 23  3  0  0  0  0
  5 24  1  1  0  0  0
 25 26  1  0  0  0  0
 25 28  2  0  0  0  0
 26 24  2  0  0  0  0
 24 27  1  0  0  0  0
 30 31  2  0  0  0  0
 31 32  1  0  0  0  0
 29 32  2  0  0  0  0
 27 30  1  0  0  0  0
 29 28  1  0  0  0  0
 28 27  1  0  0  0  0
 29 33  1  0  0  0  0
M  CHG  4  13  -1  15  -1  17  -1  19  -1
M  END
