
  Mrv1816 07171811582D          

 28 30  0  0  0  0            999 V2000
   -3.1250    1.7848    0.0000 C   0  0  0  0  0  0  0  0  0  0  0  0
   -3.8395    1.3723    0.0000 C   0  0  0  0  0  0  0  0  0  0  0  0
   -3.8395    0.5473    0.0000 C   0  0  0  0  0  0  0  0  0  0  0  0
   -3.1250    0.1348    0.0000 C   0  0  0  0  0  0  0  0  0  0  0  0
   -2.4105    0.5473    0.0000 C   0  0  0  0  0  0  0  0  0  0  0  0
   -2.4105    1.3723    0.0000 C   0  0  0  0  0  0  0  0  0  0  0  0
   -1.6961    1.7848    0.0000 C   0  0  0  0  0  0  0  0  0  0  0  0
   -1.6961    0.1348    0.0000 N   0  0  0  0  0  0  0  0  0  0  0  0
   -0.9816    0.5473    0.0000 C   0  0  0  0  0  0  0  0  0  0  0  0
   -0.9816    1.3723    0.0000 C   0  0  0  0  0  0  0  0  0  0  0  0
   -1.6529    2.6087    0.0000 O   0  0  0  0  0  0  0  0  0  0  0  0
   -0.1611    1.4586    0.0000 C   0  0  0  0  0  0  0  0  0  0  0  0
   -0.0749    2.2790    0.0000 O   0  0  0  0  0  0  0  0  0  0  0  0
    0.5740    1.0840    0.0000 N   0  0  0  0  0  0  0  0  0  0  0  0
    1.3708    1.2976    0.0000 C   0  0  0  0  0  0  0  0  0  0  0  0
   -4.4228   -0.0361    0.0000 C   0  0  0  0  0  0  0  0  0  0  0  0
   -5.2298    0.1355    0.0000 F   0  0  0  0  0  0  0  0  0  0  0  0
   -4.9420   -0.6772    0.0000 F   0  0  0  0  0  0  0  0  0  0  0  0
   -4.1679   -0.8207    0.0000 F   0  0  0  0  0  0  0  0  0  0  0  0
   -1.7823   -0.6857    0.0000 C   0  0  0  0  0  0  0  0  0  0  0  0
   -1.4078   -1.4208    0.0000 C   0  0  0  0  0  0  0  0  0  0  0  0
    1.9542    0.7142    0.0000 C   0  0  0  0  0  0  0  0  0  0  0  0
    2.6687    1.1267    0.0000 C   0  0  0  0  0  0  0  0  0  0  0  0
    1.9542   -0.1108    0.0000 C   0  0  0  0  0  0  0  0  0  0  0  0
    2.6687   -0.5233    0.0000 C   0  0  0  0  0  0  0  0  0  0  0  0
    3.3831   -0.1108    0.0000 C   0  0  0  0  0  0  0  0  0  0  0  0
    3.3831    0.7142    0.0000 C   0  0  0  0  0  0  0  0  0  0  0  0
    4.0506   -0.5958    0.0000 Cl  0  0  0  0  0  0  0  0  0  0  0  0
  1  2  2  0  0  0  0
  2  3  1  0  0  0  0
  3  4  2  0  0  0  0
  4  5  1  0  0  0  0
  5  6  2  0  0  0  0
  1  6  1  0  0  0  0
  8  9  1  0  0  0  0
  9 10  2  0  0  0  0
  7 10  1  0  0  0  0
  5  8  1  0  0  0  0
  7  6  1  0  0  0  0
  7 11  2  0  0  0  0
 10 12  1  0  0  0  0
 12 13  2  0  0  0  0
 12 14  1  0  0  0  0
 14 15  1  0  0  0  0
  3 16  1  0  0  0  0
 16 17  1  0  0  0  0
 16 18  1  0  0  0  0
 16 19  1  0  0  0  0
  8 20  1  0  0  0  0
 20 21  1  0  0  0  0
 15 22  1  0  0  0  0
 24 25  1  0  0  0  0
 25 26  2  0  0  0  0
 26 27  1  0  0  0  0
 23 27  2  0  0  0  0
 23 22  1  0  0  0  0
 22 24  2  0  0  0  0
 26 28  1  0  0  0  0
M  END
