


 20 21  0  0  0  0  0  0  0  0999 V2000
   -2.0513   -0.6537    0.0000 C   0  0  0  0  0  0  0  0  0  0  0  0
   -1.7964   -1.4383    0.0000 C   0  0  0  0  0  0  0  0  0  0  0  0
   -0.9714   -1.4383    0.0000 C   0  0  0  0  0  0  0  0  0  0  0  0
   -0.7343   -0.6180    0.0000 C   0  0  0  0  0  0  0  0  0  0  0  0
   -0.4794    0.1665    0.0000 N   0  0  0  0  0  0  0  0  0  0  0  0
   -2.4431    0.1725    0.0000 C   0  0  0  0  0  0  0  0  0  0  0  0
   -2.2813   -2.1058    0.0000 O   0  0  0  0  0  0  0  0  0  0  0  0
   -0.4864   -2.1058    0.0000 O   0  0  0  0  0  0  0  0  0  0  0  0
   -2.9840   -1.4817    0.0000 N   0  0  0  0  0  0  0  0  0  0  0  0
   -2.9490    0.2098    0.0000 O   0  0  0  0  0  0  0  0  0  0  0  0
   -3.5399   -1.8111    0.0000 N   0  3  0  0  0  0  0  0  0  0  0  0
   -4.3774   -2.5447    0.0000 N   0  5  0  0  0  0  0  0  0  0  0  0
    0.3668    0.3315    0.0000 C   0  0  0  0  0  0  0  0  0  0  0  0
    0.0699    1.7293    0.0000 C   0  0  0  0  0  0  0  0  0  0  0  0
   -0.9920    0.7731    0.0000 C   0  0  0  0  0  0  0  0  0  0  0  0
    0.9189   -0.2815    0.0000 O   0  0  0  0  0  0  0  0  0  0  0  0
   -1.3839   -0.1687    0.0000 O   0  0  0  0  0  0  0  0  0  0  0  0
    0.6218    1.1162    0.0000 N   0  0  0  0  0  0  0  0  0  0  0  0
   -0.7370    1.5578    0.0000 C   0  0  0  0  0  0  0  0  0  0  0  0
    0.3249    2.5139    0.0000 N   0  0  0  0  0  0  0  0  0  0  0  0
  1  2  1  0  0  0  0
  2  3  1  0  0  0  0
  3  4  1  0  0  0  0
  1  6  1  1  0  0  0
  6 10  1  0  0  0  0
  2  7  1  6  0  0  0
  3  8  1  6  0  0  0
  1  9  1  6  0  0  0
  4  5  1  1  0  0  0
  5 13  1  0  0  0  0
 15  5  1  0  0  0  0
 13 16  2  0  0  0  0
 17  4  1  0  0  0  0
 17  1  1  0  0  0  0
  9 11  2  0  0  0  0
 11 12  2  0  0  0  0
 13 18  1  0  0  0  0
 18 14  2  0  0  0  0
 19 15  2  0  0  0  0
 14 19  1  0  0  0  0
 14 20  1  0  0  0  0
M  END
