


 47 50  0  0001  0  0  0  0  0999 V2000
   18.4309   -3.2387    0.0000 O   0  0  0  0  0  0  0  0  0  0  0
   16.0755   -2.0021    0.0000 O   0  0  0  0  0  0  0  0  0  0  0
   15.0548   -6.7325    0.0000 O   0  0  0  0  0  0  0  0  0  0  0
   13.5435   -8.5972    0.0000 O   0  0  0  0  0  0  0  0  0  0  0
   11.5218   -8.4990    0.0000 O   0  0  0  0  0  0  0  0  0  0  0
   17.2728   -1.2562    0.0000 O   0  0  0  0  0  0  0  0  0  0  0
   14.9175    0.0000    0.0000 O   0  0  0  0  0  0  0  0  0  0  0
   17.6065   -9.5393    0.0000 O   0  0  0  0  0  0  0  0  0  0  0
   17.3710   -5.2407    0.0000 C   0  0  0  0  0  0  0  0  0  0  0
   17.3514   -3.9060    0.0000 C   0  0  0  0  0  0  0  0  0  0  0
   18.4898   -4.4949    0.0000 C   0  0  0  0  0  0  0  0  0  0  0
   16.2718   -6.0062    0.0000 C   0  0  0  0  0  0  0  0  0  0  0
   15.0548   -5.3978    0.0000 C   0  0  0  0  0  0  0  0  0  0  0
   16.0755   -3.3368    0.0000 C   0  0  0  0  0  0  0  0  0  0  0
   15.0352   -4.0630    0.0000 C   0  0  0  0  0  0  0  0  0  0  0
   13.8772   -5.9866    0.0000 C   0  0  0  0  0  0  0  0  0  0  0
   16.5466   -7.3017    0.0000 C   0  0  0  0  0  0  0  0  0  0  0
   13.5631   -7.2624    0.0000 C   0  0  0  0  0  0  0  0  0  0  0
   19.6282   -5.1622    0.0000 C   0  0  0  0  0  0  0  0  0  0  0
   19.6282   -3.8275    0.0000 C   0  0  0  0  0  0  0  0  0  0  0
   12.7387   -5.2604    0.0000 C   0  0  0  0  0  0  0  0  0  0  0
   15.7026   -8.3224    0.0000 C   0  0  0  0  0  0  0  0  0  0  0
   12.2284   -7.3606    0.0000 C   0  0  0  0  0  0  0  0  0  0  0
   14.3679   -8.3224    0.0000 C   0  0  0  0  0  0  0  0  0  0  0
   18.4309   -1.9039    0.0000 C   0  0  0  0  0  0  0  0  0  0  0
   13.7790   -3.4938    0.0000 C   0  0  0  0  0  0  0  0  0  0  0
   11.7377   -6.1436    0.0000 C   0  0  0  0  0  0  0  0  0  0  0
   14.9175   -1.3347    0.0000 C   0  0  0  0  0  0  0  0  0  0  0
   16.2718   -9.5393    0.0000 C   0  0  0  0  0  0  0  0  0  0  0
   19.5693   -1.2366    0.0000 C   0  0  0  0  0  0  0  0  0  0  0
   10.4226   -5.8100    0.0000 C   0  0  0  0  0  0  0  0  0  0  0
   13.7594   -2.0021    0.0000 C   0  0  0  0  0  0  0  0  0  0  0
   12.6209   -1.3347    0.0000 C   0  0  0  0  0  0  0  0  0  0  0
   11.4825   -2.0021    0.0000 C   0  0  0  0  0  0  0  0  0  0  0
   10.3244   -1.3347    0.0000 C   0  0  0  0  0  0  0  0  0  0  0
    9.1860   -2.0021    0.0000 C   0  0  0  0  0  0  0  0  0  0  0
    8.0279   -1.3347    0.0000 C   0  0  0  0  0  0  0  0  0  0  0
    6.8895   -2.0021    0.0000 C   0  0  0  0  0  0  0  0  0  0  0
    5.7314   -1.3347    0.0000 C   0  0  0  0  0  0  0  0  0  0  0
    4.5930   -2.0021    0.0000 C   0  0  0  0  0  0  0  0  0  0  0
    3.4349   -1.3347    0.0000 C   0  0  0  0  0  0  0  0  0  0  0
    2.2965   -2.0021    0.0000 C   0  0  0  0  0  0  0  0  0  0  0
    1.1384   -1.3347    0.0000 C   0  0  0  0  0  0  0  0  0  0  0
    0.0000   -2.0021    0.0000 C   0  0  0  0  0  0  0  0  0  0  0
   18.5290   -5.9081    0.0000 H   0  0  0  0  0  0  0  0  0  0  0
   17.4102   -6.6540    0.0000 H   0  0  0  0  0  0  0  0  0  0  0
   13.8772   -4.6519    0.0000 H   0  0  0  0  0  0  0  0  0  0  0
 10  1  1  6
  1 25  1  0
 14  2  1  1
  2 28  1  0
 13  3  1  6
 18  4  1  1
  5 23  2  0
  6 25  2  0
  7 28  2  0
  8 29  1  0
  9 10  1  0
  9 11  1  0
  9 12  1  0
  9 45  1  6
 10 11  1  0
 10 14  1  0
 11 19  1  0
 11 20  1  0
 12 13  1  0
 12 17  1  0
 12 46  1  1
 13 15  1  0
 13 16  1  0
 14 15  1  0
 15 26  1  6
 16 18  1  0
 16 21  1  0
 16 47  1  6
 17 22  2  0
 18 23  1  0
 18 24  1  0
 21 27  2  0
 22 24  1  0
 22 29  1  0
 23 27  1  0
 25 30  1  0
 27 31  1  0
 28 32  1  0
 32 33  1  0
 33 34  1  0
 34 35  1  0
 35 36  1  0
 36 37  1  0
 37 38  1  0
 38 39  1  0
 39 40  1  0
 40 41  1  0
 41 42  1  0
 42 43  1  0
 43 44  1  0
M  END

> <StdInChI>
InChI=1S/C36H56O8/c1-7-8-9-10-11-12-13-14-15-16-17-18-29(39)43-32-24(3)35(42)27(30-33(5,6)36(30,32)44-25(4)38)20-26(22-37)21-34(41)28(35)19-23(2)31(34)40/h19-20,24,27-28,30,32,37,41-42H,7-18,21-22H2,1-6H3/t24-,27+,28-,30-,32-,34-,35-,36-/m1/s1

> <StdInChIKey>
PHEDXBVPIONUQT-RGYGYFBISA-N

> <AuxInfo>
1/0/N:44,31,26,30,19,20,43,42,41,40,39,38,37,36,35,34,33,32,21,17,24,29,27,15,25,22,12,16,28,9,23,14,11,18,13,10,8,6,7,5,4,3,2,1/E:(5,6)/it:im/rA:47cOOOOOOOOCCCCCCCCCCCCCCCCCCCCCCCCCCCCCCCCCCCCHHH/rB:;;;;;;;;n1s9;s9s10;s9;n3s12;p2s10;s13s14;s13;s12;p4s16;s11;s11;s16;d17;d5s18;s18s22;s1d6;N15;d21s23;s2d7;s8s22;s25;s27;s28;s32;s33;s34;s35;s36;s37;s38;s39;s40;s41;s42;s43;N9;P12;N16;/rC:18.4309,-3.2387,0;16.0755,-2.0021,0;15.0548,-6.7325,0;13.5435,-8.5972,0;11.5218,-8.499,0;17.2728,-1.2562,0;14.9175,0,0;17.6065,-9.5393,0;17.371,-5.2407,0;17.3514,-3.906,0;18.4898,-4.4949,0;16.2718,-6.0062,0;15.0548,-5.3978,0;16.0755,-3.3368,0;15.0352,-4.063,0;13.8772,-5.9866,0;16.5466,-7.3017,0;13.5631,-7.2624,0;19.6282,-5.1622,0;19.6282,-3.8275,0;12.7387,-5.2604,0;15.7026,-8.3224,0;12.2284,-7.3606,0;14.3679,-8.3224,0;18.4309,-1.9039,0;13.779,-3.4938,0;11.7377,-6.1436,0;14.9175,-1.3347,0;16.2718,-9.5393,0;19.5693,-1.2366,0;10.4226,-5.81,0;13.7594,-2.0021,0;12.6209,-1.3347,0;11.4825,-2.0021,0;10.3244,-1.3347,0;9.186,-2.0021,0;8.0279,-1.3347,0;6.8895,-2.0021,0;5.7314,-1.3347,0;4.593,-2.0021,0;3.4349,-1.3347,0;2.2965,-2.0021,0;1.1384,-1.3347,0;0,-2.0021,0;18.529,-5.9081,0;17.4102,-6.654,0;13.8772,-4.6519,0;

> <Formula>
C36 H56 O8

> <Mw>
616.8251

> <SMILES>
O(C(C)=O)[C@@]12[C@@H]([C@@H](C)[C@@]3([C@]4([H])C=C(C)C([C@]4(CC(CO)=C[C@@]3([H])[C@]1([H])C2(C)C)O)=O)O)OC(CCCCCCCCCCCCC)=O

> <CSID>
25977

$$$$
