


 24 25  0  0000  0  0  0  0  0999 V2000
   11.6554   -4.7097    0.0000 C   0  0  0  0  0  0  0  0  0  0  0
   13.0350   -4.9952    0.0000 N   0  5  0  0  0  0  0  0  0  0  0
   10.9418   -5.8991    0.0000 N   0  0  0  0  0  0  0  0  0  0  0
    1.2845   -1.4272    0.0000 N   0  3  0  0  0  0  0  0  0  0  0
   13.0350   -6.3272    0.0000 C   0  0  0  0  0  0  0  0  0  0  0
    4.9476   -5.1379    0.0000 C   0  0  0  0  0  0  0  0  0  0  0
   11.8933   -6.8505    0.0000 C   0  0  0  0  0  0  0  0  0  0  0
    9.6098   -5.8991    0.0000 N   0  0  0  0  0  0  0  0  0  0  0
    6.2321   -4.8525    0.0000 O   0  0  0  0  0  0  0  0  0  0  0
    4.9476   -6.5175    0.0000 C   0  0  0  0  0  0  0  0  0  0  0
    6.9457   -5.8991    0.0000 C   0  0  0  0  0  0  0  0  0  0  0
    8.3729   -5.8991    0.0000 C   0  0  0  0  0  0  0  0  0  0  0
    2.2359   -2.3787    0.0000 C   0  0  0  0  0  0  0  0  0  0  0
    6.1845   -6.9457    0.0000 C   0  0  0  0  0  0  0  0  0  0  0
    0.0000   -1.7126    0.0000 O   0  5  0  0  0  0  0  0  0  0  0
    3.9961   -4.3292    0.0000 C   0  0  0  0  0  0  0  0  0  0  0
    1.7126    0.0000    0.0000 O   0  0  0  0  0  0  0  0  0  0  0
   11.0845   -3.5204    0.0000 O   0  0  0  0  0  0  0  0  0  0  0
   14.2719   -6.9457    0.0000 O   0  0  0  0  0  0  0  0  0  0  0
    1.8554   -3.6631    0.0000 C   0  0  0  0  0  0  0  0  0  0  0
    3.4728   -2.0932    0.0000 C   0  0  0  0  0  0  0  0  0  0  0
    2.7117   -4.6146    0.0000 C   0  0  0  0  0  0  0  0  0  0  0
    4.3767   -3.0447    0.0000 C   0  0  0  0  0  0  0  0  0  0  0
   13.0350   -3.2350    0.0000 Na  0  3  0  0  0  0  0  0  0  0  0
  1  2  1  0
  1  3  1  0
  1 18  2  0
  2  5  1  0
  3  7  1  0
  3  8  1  0
  4 13  1  0
  4 15  1  0
  4 17  2  0
  5 19  2  0
  5  7  1  0
  6  9  1  0
  6 16  1  0
  6 10  2  0
  8 12  2  0
  9 11  1  0
 10 14  1  0
 11 12  1  0
 11 14  2  0
 13 21  2  0
 13 20  1  0
 16 22  1  0
 16 23  2  0
 20 22  2  0
 21 23  1  0
M  CHG  4   2  -1   4   1  15  -1  24   1
M  END

> <StdInChI>
InChI=1S/C14H10N4O5.Na/c19-13-8-17(14(20)16-13)15-7-11-5-6-12(23-11)9-1-3-10(4-2-9)18(21)22;/h1-7H,8H2,(H,16,19,20);/q;+1/p-1

> <StdInChIKey>
KSRLIXGNPXAZHD-UHFFFAOYSA-M

> <AuxInfo>
1/5/N:22,23,20,21,14,10,12,7,16,13,11,6,5,1,8,2,3,4,19,18,15,17,9;24/E:(1,2)(3,4)(21,22);/CRV:18.5;/rA:24nCN-NN+CCCNOCCCCCO-COOOCCCCNa+/rB:s1;s1;;s2;;s3s5;s3;s6;d6;s9;d8s11;s4;s10d11;s4;s6;d4;d1;d5;s13;d13;s16d20;d16s21;;/rC:11.6554,-4.7097,0;13.035,-4.9952,0;10.9418,-5.8991,0;1.2845,-1.4272,0;13.035,-6.3272,0;4.9476,-5.1379,0;11.8933,-6.8505,0;9.6098,-5.8991,0;6.2321,-4.8525,0;4.9476,-6.5175,0;6.9457,-5.8991,0;8.3729,-5.8991,0;2.2359,-2.3787,0;6.1845,-6.9457,0;0,-1.7126,0;3.9961,-4.3292,0;1.7126,0,0;11.0845,-3.5204,0;14.2719,-6.9457,0;1.8554,-3.6631,0;3.4728,-2.0932,0;2.7117,-4.6146,0;4.3767,-3.0447,0;13.035,-3.235,0;

> <Formula>
C14 H9 N4 Na O5

> <Mw>
336.2348

> <SMILES>
C1(=O)N(N=CC2=CC=C(C3=CC=C(C=C3)[N+](=O)[O-])O2)CC(=O)[N-]1.[Na+]

> <CSID>
10481956

$$$$
