


 10 11  0  0000  0  0  0  0  0999 V2000
    1.1486    0.0000    0.0000 N   0  0  0  0  0  0  0  0  0  0  0
    1.1486   -1.3233    0.0000 C   0  0  0  0  0  0  0  0  0  0  0
    2.2929   -1.9828    0.0000 C   0  0  0  0  0  0  0  0  0  0  0
    2.2929   -3.3061    0.0000 C   0  0  0  0  0  0  0  0  0  0  0
    1.1486   -3.9700    0.0000 N   0  0  0  0  0  0  0  0  0  0  0
    0.0000   -3.3061    0.0000 C   0  0  0  0  0  0  0  0  0  0  0
    0.0000   -1.9828    0.0000 N   0  0  0  0  0  0  0  0  0  0  0
    3.6424   -3.6424    0.0000 N   0  0  0  0  0  0  0  0  0  0  0
    4.3674   -2.5418    0.0000 C   0  0  0  0  0  0  0  0  0  0  0
    3.5289   -1.5068    0.0000 N   0  0  0  0  0  0  0  0  0  0  0
  1  2  1  0
  2  3  2  0
  2  7  1  0
  3  4  1  0
  3 10  1  0
  4  5  1  0
  4  8  2  0
  5  6  2  0
  6  7  1  0
  8  9  1  0
  9 10  2  0
M  END

> <StdInChI>
InChI=1S/C5H5N5/c6-4-3-5(9-1-7-3)10-2-8-4/h1-2H,(H3,6,7,8,9,10)

> <StdInChIKey>
GFFGJBXGBJISGV-UHFFFAOYSA-N

> <AuxInfo>
1/1/N:9,6,3,2,4,1,10,7,8,5/rA:10nNCCCNCNNCN/rB:s1;d2;s3;s4;d5;s2s6;d4;s8;s3d9;/rC:1.1486,0,0;1.1486,-1.3233,0;2.2929,-1.9828,0;2.2929,-3.3061,0;1.1486,-3.97,0;0,-3.3061,0;0,-1.9828,0;3.6424,-3.6424,0;4.3674,-2.5418,0;3.5289,-1.5068,0;

> <Formula>
C5 H5 N5

> <Mw>
135.1267

> <SMILES>
NC1NC=NC2=NC=NC=12

> <CSID>
185

$$$$
