
  Mrv1816 07111816042D          

 34 38  0  0  0  0            999 V2000
   -2.7902   -1.1500    0.0000 C   0  0  0  0  0  0  0  0  0  0  0  0
   -3.5046   -0.7375    0.0000 C   0  0  0  0  0  0  0  0  0  0  0  0
   -4.2192   -1.1500    0.0000 C   0  0  0  0  0  0  0  0  0  0  0  0
   -4.2192   -1.9750    0.0000 C   0  0  0  0  0  0  0  0  0  0  0  0
   -3.5046   -2.3875    0.0000 C   0  0  0  0  0  0  0  0  0  0  0  0
   -2.7902   -1.9750    0.0000 C   0  0  0  0  0  0  0  0  0  0  0  0
   -2.0757   -2.3875    0.0000 C   0  0  0  0  0  0  0  0  0  0  0  0
   -1.3612   -1.9750    0.0000 C   0  0  0  0  0  0  0  0  0  0  0  0
   -1.3612   -1.1500    0.0000 C   0  0  0  0  0  0  0  0  0  0  0  0
   -2.0757   -0.7375    0.0000 C   0  0  0  0  0  0  0  0  0  0  0  0
   -1.3612    0.5000    0.0000 C   0  0  0  0  0  0  0  0  0  0  0  0
   -2.0757    0.0875    0.0000 C   0  0  0  0  0  0  0  0  0  0  0  0
   -0.6467   -0.7375    0.0000 C   0  0  0  0  0  0  0  0  0  0  0  0
   -0.6467    0.0875    0.0000 C   0  0  0  0  0  0  0  0  0  0  0  0
    0.1069    0.4231    0.0000 C   0  0  0  0  0  0  0  0  0  0  0  0
    1.0989    1.3163    0.0000 N   0  0  0  0  0  0  0  0  0  0  0  0
    0.2785    1.2300    0.0000 N   0  0  0  0  0  0  0  0  0  0  0  0
    0.8214    0.0106    0.0000 C   0  0  0  0  0  0  0  0  0  0  0  0
    1.4345    0.5626    0.0000 C   0  0  0  0  0  0  0  0  0  0  0  0
    2.2415    0.3910    0.0000 C   0  0  0  0  0  0  0  0  0  0  0  0
    3.0563    0.5201    0.0000 F   0  0  0  0  0  0  0  0  0  0  0  0
    2.5770   -0.3626    0.0000 F   0  0  0  0  0  0  0  0  0  0  0  0
    1.9865   -0.3936    0.0000 F   0  0  0  0  0  0  0  0  0  0  0  0
   -0.2736    1.8431    0.0000 C   0  0  0  0  0  0  0  0  0  0  0  0
   -0.0187    2.6277    0.0000 C   0  0  0  0  0  0  0  0  0  0  0  0
   -0.5707    3.2408    0.0000 C   0  0  0  0  0  0  0  0  0  0  0  0
   -1.3777    3.0693    0.0000 C   0  0  0  0  0  0  0  0  0  0  0  0
   -1.6326    2.2847    0.0000 C   0  0  0  0  0  0  0  0  0  0  0  0
   -1.0806    1.6716    0.0000 C   0  0  0  0  0  0  0  0  0  0  0  0
   -1.9908    3.6213    0.0000 N   0  0  0  0  0  0  0  0  0  0  0  0
   -2.7754    3.3664    0.0000 C   0  0  0  0  0  0  0  0  0  0  0  0
   -2.9889    2.5695    0.0000 O   0  0  0  0  0  0  0  0  0  0  0  0
   -3.3588    3.9498    0.0000 C   0  0  0  0  0  0  0  0  0  0  0  0
   -4.0507    3.5004    0.0000 N   0  0  0  0  0  0  0  0  0  0  0  0
  1  2  2  0  0  0  0
  2  3  1  0  0  0  0
  3  4  2  0  0  0  0
  4  5  1  0  0  0  0
  5  6  2  0  0  0  0
  7  8  2  0  0  0  0
  8  9  1  0  0  0  0
  9 10  2  0  0  0  0
  1  6  1  0  0  0  0
  1 10  1  0  0  0  0
  6  7  1  0  0  0  0
 11 12  2  0  0  0  0
 13 14  2  0  0  0  0
 11 14  1  0  0  0  0
  9 13  1  0  0  0  0
 12 10  1  0  0  0  0
 14 15  1  0  0  0  0
 16 17  1  0  0  0  0
 18 19  1  0  0  0  0
 16 19  2  0  0  0  0
 17 15  1  0  0  0  0
 15 18  2  0  0  0  0
 19 20  1  0  0  0  0
 20 21  1  0  0  0  0
 20 22  1  0  0  0  0
 20 23  1  0  0  0  0
 25 26  2  0  0  0  0
 26 27  1  0  0  0  0
 27 28  2  0  0  0  0
 28 29  1  0  0  0  0
 24 25  1  0  0  0  0
 24 29  2  0  0  0  0
 17 24  1  0  0  0  0
 27 30  1  0  0  0  0
 30 31  1  0  0  0  0
 31 32  2  0  0  0  0
 31 33  1  0  0  0  0
 33 34  1  0  0  0  0
M  END
