


 14 12  0  0000  0  0  0  0  0999 V2000
    8.1040   -1.1751    0.0000 Ga  0  1  0  0  0  0  0  0  0  0  0
    2.7716   -1.1589    0.0000 O   0  0  0  0  0  0  0  0  0  0  0
    3.4280    0.0000    0.0000 O   0  5  0  0  0  0  0  0  0  0  0
    5.4378   -1.1589    0.0000 O   0  0  0  0  0  0  0  0  0  0  0
    0.0000   -2.9904    0.0000 O   0  5  0  0  0  0  0  0  0  0  0
    5.7376   -4.9677    0.0000 O   0  5  0  0  0  0  0  0  0  0  0
    1.1427   -0.9968    0.0000 O   0  0  0  0  0  0  0  0  0  0  0
    3.4280   -4.9596    0.0000 O   0  0  0  0  0  0  0  0  0  0  0
    3.4442   -2.3177    0.0000 C   0  0  0  0  0  0  0  0  0  0  0
    4.1006   -1.1589    0.0000 C   0  0  0  0  0  0  0  0  0  0  0
    2.2934   -2.9742    0.0000 C   0  0  0  0  0  0  0  0  0  0  0
    4.5950   -2.9742    0.0000 C   0  0  0  0  0  0  0  0  0  0  0
    1.1508   -2.3177    0.0000 C   0  0  0  0  0  0  0  0  0  0  0
    4.5869   -4.3032    0.0000 C   0  0  0  0  0  0  0  0  0  0  0
  2  9  1  0
  3 10  1  0
  4 10  2  0
  5 13  1  0
  6 14  1  0
  7 13  2  0
  8 14  2  0
  9 10  1  0
  9 11  1  0
  9 12  1  0
 11 13  1  0
 12 14  1  0
M  CHG  4   1   3   3  -1   5  -1   6  -1
M  END

> <StdInChI>
InChI=1S/C6H8O7.Ga/c7-3(8)1-6(13,5(11)12)2-4(9)10;/h13H,1-2H2,(H,7,8)(H,9,10)(H,11,12);/q;+3/p-3/i;1-3

> <StdInChIKey>
YEEGWNXDUZONAA-RYDPDVNUSA-K

> <AuxInfo>
1/1/N:11,12,13,14,10,9,5,7,6,8,3,4,2;1/E:(1,2)(3,4)(7,8,9,10)(11,12);/gE:(1,2);/rA:14nGa+3i67OO-OO-O-OOCCCCCC/rB:;;;;;;;s2;s3d4s9;s9;s9;s5d7s11;s6d8s12;/rC:8.104,-1.1751,0;2.7716,-1.1589,0;3.428,0,0;5.4378,-1.1589,0;0,-2.9904,0;5.7376,-4.9677,0;1.1427,-.9968,0;3.428,-4.9596,0;3.4442,-2.3177,0;4.1006,-1.1589,0;2.2934,-2.9742,0;4.595,-2.9742,0;1.1508,-2.3177,0;4.5869,-4.3032,0;

> <Formula>
C6 H5 Ga O7

> <Mw>
256.0279

> <SMILES>
[67Ga+3].OC(CC(=O)[O-])(CC(=O)[O-])C(=O)[O-]

> <CSID>
58893

$$$$
