


 22 24  0  0000  0  0  0  0  0999 V2000
    0.4786   -9.0300    0.0000 C   0  0  0  0  0  0  0  0  0  0  0
    0.8940   -7.7658    0.0000 C   0  0  0  0  0  0  0  0  0  0  0
    0.0000   -6.7725    0.0000 C   0  0  0  0  0  0  0  0  0  0  0
    0.4154   -5.5083    0.0000 C   0  0  0  0  0  0  0  0  0  0  0
    1.7157   -5.2374    0.0000 C   0  0  0  0  0  0  0  0  0  0  0
    2.6006   -6.2216    0.0000 C   0  0  0  0  0  0  0  0  0  0  0
    3.9009   -5.9507    0.0000 C   0  0  0  0  0  0  0  0  0  0  0
    4.3163   -4.6775    0.0000 C   0  0  0  0  0  0  0  0  0  0  0
    3.5307   -3.6030    0.0000 N   0  0  0  0  0  0  0  0  0  0  0
    4.3163   -2.5284    0.0000 N   0  0  0  0  0  0  0  0  0  0  0
    5.5805   -2.9438    0.0000 C   0  0  0  0  0  0  0  0  0  0  0
    6.7273   -2.2756    0.0000 N   0  0  0  0  0  0  0  0  0  0  0
    7.8832   -2.9438    0.0000 C   0  0  0  0  0  0  0  0  0  0  0
    7.8832   -4.2712    0.0000 N   0  0  0  0  0  0  0  0  0  0  0
    6.7273   -4.9394    0.0000 C   0  0  0  0  0  0  0  0  0  0  0
    6.7273   -6.2668    0.0000 N   0  0  0  0  0  0  0  0  0  0  0
    5.5805   -4.2712    0.0000 C   0  0  0  0  0  0  0  0  0  0  0
    3.9009   -1.2642    0.0000 C   0  0  0  0  0  0  0  0  0  0  0
    3.4946    0.0000    0.0000 C   0  0  0  0  0  0  0  0  0  0  0
    5.1651   -0.8578    0.0000 C   0  0  0  0  0  0  0  0  0  0  0
    2.6368   -1.6796    0.0000 C   0  0  0  0  0  0  0  0  0  0  0
    2.1943   -7.4858    0.0000 C   0  0  0  0  0  0  0  0  0  0  0
  1  2  1  0
  2  3  2  0
  2 22  1  0
  3  4  1  0
  4  5  2  0
  5  6  1  0
  6  7  1  0
  6 22  2  0
  7  8  1  0
  8  9  2  0
  8 17  1  0
  9 10  1  0
 10 11  1  0
 10 18  1  0
 11 12  2  0
 11 17  1  0
 12 13  1  0
 13 14  2  0
 14 15  1  0
 15 16  1  0
 15 17  2  0
 18 19  1  0
 18 20  1  0
 18 21  1  0
M  END

> <StdInChI>
InChI=1S/C17H21N5/c1-11-6-5-7-12(8-11)9-13-14-15(18)19-10-20-16(14)22(21-13)17(2,3)4/h5-8,10H,9H2,1-4H3,(H2,18,19,20)

> <StdInChIKey>
FYCOTGCSHZKHPR-UHFFFAOYSA-N

> <AuxInfo>
1/1/N:1,19,20,21,4,3,5,22,7,13,2,6,8,17,15,11,18,16,14,12,9,10/E:(2,3,4)/rA:22nCCCCCCCCNNCNCNCNCCCCCC/rB:s1;d2;s3;d4;s5;s6;s7;d8;s9;s10;d11;s12;d13;s14;s15;s8s11d15;s10;s18;s18;s18;s2d6;/rC:.4786,-9.03,0;.894,-7.7658,0;0,-6.7725,0;.4154,-5.5083,0;1.7157,-5.2374,0;2.6006,-6.2216,0;3.9009,-5.9507,0;4.3163,-4.6775,0;3.5307,-3.603,0;4.3163,-2.5284,0;5.5805,-2.9438,0;6.7273,-2.2756,0;7.8832,-2.9438,0;7.8832,-4.2712,0;6.7273,-4.9394,0;6.7273,-6.2668,0;5.5805,-4.2712,0;3.9009,-1.2642,0;3.4946,0,0;5.1651,-.8578,0;2.6368,-1.6796,0;2.1943,-7.4858,0;

> <Formula>
C17 H21 N5

> <Mw>
295.3821

> <SMILES>
CC1C=C(CC2C3=C(N)N=CN=C3N(C(C)(C)C)N=2)C=CC=1

> <CSID>
23976079

$$$$
