
  Mrv1816 07241821382D          

 22 22  0  0  0  0            999 V2000
   -0.2902    1.1152    0.0000 C   0  0  0  0  0  0  0  0  0  0  0  0
   -1.0046    0.7027    0.0000 N   0  0  0  0  0  0  0  0  0  0  0  0
   -1.0046   -0.1223    0.0000 C   0  0  0  0  0  0  0  0  0  0  0  0
   -0.2902   -0.5348    0.0000 N   0  0  0  0  0  0  0  0  0  0  0  0
    0.4243   -0.1223    0.0000 C   0  0  0  0  0  0  0  0  0  0  0  0
    0.4243    0.7027    0.0000 N   0  0  0  0  0  0  0  0  0  0  0  0
   -1.6177   -0.6744    0.0000 N   0  0  0  0  0  0  0  0  0  0  0  0
   -1.5315   -1.4948    0.0000 C   0  0  0  0  0  0  0  0  0  0  0  0
   -1.2358   -2.2650    0.0000 N   0  0  0  0  0  0  0  0  0  0  0  0
   -2.2852   -0.1894    0.0000 C   0  0  0  0  0  0  0  0  0  0  0  0
   -3.0203   -0.5640    0.0000 C   0  0  0  0  0  0  0  0  0  0  0  0
   -3.6877   -0.0791    0.0000 O   0  0  0  0  0  0  0  0  0  0  0  0
   -4.2711   -0.6624    0.0000 C   0  0  0  0  0  0  0  0  0  0  0  0
   -3.0634   -1.3879    0.0000 O   0  0  0  0  0  0  0  0  0  0  0  0
   -0.3764    1.9357    0.0000 N   0  0  0  0  0  0  0  0  0  0  0  0
   -0.6721    2.7059    0.0000 C   0  0  0  0  0  0  0  0  0  0  0  0
   -1.4869    2.8349    0.0000 C   0  0  0  0  0  0  0  0  0  0  0  0
    0.0198    3.1552    0.0000 C   0  0  0  0  0  0  0  0  0  0  0  0
    1.0917   -0.6073    0.0000 N   0  0  0  0  0  0  0  0  0  0  0  0
    1.8763   -0.3523    0.0000 C   0  0  0  0  0  0  0  0  0  0  0  0
    1.9195    0.4716    0.0000 C   0  0  0  0  0  0  0  0  0  0  0  0
    2.4284   -0.9654    0.0000 C   0  0  0  0  0  0  0  0  0  0  0  0
  1  2  1  0  0  0  0
  2  3  2  0  0  0  0
  3  4  1  0  0  0  0
  4  5  2  0  0  0  0
  5  6  1  0  0  0  0
  1  6  2  0  0  0  0
  3  7  1  0  0  0  0
  7  8  1  0  0  0  0
  8  9  3  0  0  0  0
  7 10  1  0  0  0  0
 10 11  1  0  0  0  0
 11 12  1  0  0  0  0
 12 13  1  0  0  0  0
 11 14  2  0  0  0  0
  1 15  1  0  0  0  0
 15 16  1  0  0  0  0
 16 17  1  0  0  0  0
 16 18  1  0  0  0  0
  5 19  1  0  0  0  0
 19 20  1  0  0  0  0
 20 21  1  0  0  0  0
 20 22  1  0  0  0  0
M  END
